**************************************
*      Model Generated by MODPEX     *
*Copyright(c) Symmetry Design Systems*
*         All Rights Reserved        *
*    UNPUBLISHED LICENSED SOFTWARE   *
*   Contains Proprietary Information *
*      Which is The Property of      *
*     SYMMETRY OR ITS LICENSORS      *
*Commercial Use or Resale Restricted *
*   by Symmetry License Agreement    *
**************************************
* Model generated on May  5, 03
* MODEL FORMAT: SPICE3
.SUBCKT MMBT5551L B E C
Q1 C B E mmbt5551lt1
.MODEL mmbt5551lt1 npn
+IS=3.46149e-13 BF=350.458 NF=0.973913 VAF=10
+IKF=0.0038494 ISE=7.19337e-09 NE=3.45613 BR=30.271
+NR=0.963344 VAR=92.7807 IKR=1e-05 ISC=1.01e-16
+NC=1 RB=18.0159 IRB=0.1 RBM=0.1
+RE=0.000897475 RC=0.67305 XTB=0.39003 XTI=1
+EG=1.05 CJE=1.77737e-11 VJE=0.99 MJE=0.480346
+TF=4.42886e-10 XTF=0.800691 VTF=8.53917 ITF=0.00614298
+CJC=7.55602e-12 VJC=0.4 MJC=0.340501 XCJC=0.9
+FC=0.466967 CJS=0 VJS=0.75 MJS=0.5
+TR=8.75632e-08 PTF=0 KF=0 AF=1
.ENDS MMBT5551L
